examples/test_perturbation_outputs/pert_min_loss/pglib_opf_case179_goc.m
%% MATPOWER Case Format : Version 2
function mpc = pglib_opf_case179_goc
mpc.version = '2';

%%-----  Power Flow Data  -----%%
%% system MVA base
mpc.baseMVA = 100.0;
%% bus data
%    bus_i    type    Pd    Qd    Gs    Bs    area    Vm    Va    baseKV    zone    Vmax    Vmin
mpc.bus = [
	2	1	926.77	-54.77000000000001	0.0	0.0	1	1.003	0.0	1.0	1	1.108	0.898				
	3	1	0.0	0.0	0.0	0.0	1	1.003	0.0	1.0	1	1.108	0.898				
	4	2	46.71	0.0	0.0	0.0	1	1.003	0.0	1.0	1	1.108	0.898				
	5	1	1271.04	-122.37	0.0	0.0	1	1.003	0.0	1.0	1	1.108	0.898				
	6	2	48.57	0.0	0.0	0.0	1	1.003	0.0	1.0	1	1.108	0.898				
	7	1	0.0	0.0	0.0	-112.99999999999999	1	1.003	0.0	1.0	1	1.108	0.898				
	8	1	113.45	-54.21	0.0	-155.0	1	1.003	0.0	1.0	1	1.108	0.898				
	9	2	50.0	0.0	0.0	0.0	1	1.003	0.0	1.0	1	1.108	0.898				
	10	1	67.39	22.91	0.0	0.0	1	1.003	0.0	1.0	1	1.108	0.898				
	11	2	47.87	0.0	0.0	0.0	1	1.003	0.0	1.0	1	1.108	0.898				
	12	1	41.43	65.76	0.0	-190.0	2	1.003	0.0	1.0	1	1.108	0.898				
	13	2	48.55	0.0	0.0	0.0	2	1.003	0.0	1.0	1	1.108	0.898				
	14	1	0.0	0.0	0.0	-391.0	2	1.003	0.0	1.0	1	1.108	0.898				
	15	2	46.55	0.0	0.0	0.0	2	1.003	0.0	1.0	1	1.108	0.898				
	16	1	434.68	215.19999999999996	0.0	-146.0	2	1.003	0.0	1.0	1	1.108	0.898				
	17	1	459.25	4.79	0.0	390.0	1	1.003	0.0	1.0	1	1.108	0.898				
	18	2	51.790000000000006	0.0	0.0	0.0	1	1.003	0.0	1.0	1	1.108	0.898				
	19	1	327.45	-64.08	0.0	-426.99999999999994	2	1.003	0.0	1.0	1	1.108	0.898				
	20	1	0.0	0.0	0.0	0.0	2	1.003	0.0	1.0	1	1.108	0.898				
	21	1	0.0	0.0	0.0	0.0	2	1.003	0.0	1.0	1	1.108	0.898				
	22	1	0.0	0.0	0.0	0.0	2	1.003	0.0	1.0	1	1.108	0.898				
	23	1	0.0	0.0	0.0	0.0	2	1.003	0.0	1.0	1	1.108	0.898				
	24	1	0.0	0.0	0.0	0.0	2	1.003	0.0	1.0	1	1.108	0.898				
	25	1	0.0	0.0	0.0	0.0	2	1.003	0.0	1.0	1	1.108	0.898				
	26	1	0.0	0.0	0.0	0.0	2	1.003	0.0	1.0	1	1.108	0.898				
	27	1	0.0	0.0	0.0	0.0	2	1.003	0.0	1.0	1	1.108	0.898				
	28	1	0.0	0.0	0.0	0.0	1	1.003	0.0	1.0	1	1.108	0.898				
	29	1	0.0	0.0	0.0	0.0	1	1.003	0.0	1.0	1	1.108	0.898				
	30	2	49.3	0.0	0.0	0.0	1	1.003	0.0	1.0	1	1.108	0.898				
	31	1	2376.39	1052.35	0.0	0.0	1	1.003	0.0	1.0	1	1.108	0.898				
	32	1	0.0	0.0	0.0	0.0	1	1.003	0.0	1.0	1	1.108	0.898				
	33	1	0.0	0.0	0.0	0.0	1	1.003	0.0	1.0	1	1.108	0.898				
	34	1	1692.19	703.18	0.0	0.0	1	1.003	0.0	1.0	1	1.108	0.898				
	35	2	45.09	0.0	0.0	0.0	1	1.003	0.0	1.0	1	1.108	0.898				
	36	2	51.16	0.0	0.0	0.0	1	1.003	0.0	1.0	1	1.108	0.898				
	37	1	-843.68	1045.02	0.0	911.9999999999999	2	1.003	0.0	1.0	1	1.108	0.898				
	38	1	0.0	0.0	0.0	0.0	2	1.003	0.0	1.0	1	1.108	0.898				
	39	1	0.0	0.0	0.0	0.0	2	1.003	0.0	1.0	1	1.108	0.898				
	40	2	51.45000000000001	0.0	0.0	0.0	2	1.003	0.0	1.0	1	1.108	0.898				
	41	1	69.79	28.000000000000004	0.0	0.0	2	1.003	0.0	1.0	1	1.108	0.898				
	42	1	0.0	0.0	0.0	0.0	2	1.003	0.0	1.0	1	1.108	0.898				
	43	2	49.01	0.0	0.0	0.0	2	1.003	0.0	1.0	1	1.108	0.898				
	44	1	1098.25	902.5	0.0	430.0	1	1.003	0.0	1.0	1	1.108	0.898				
	45	2	52.83	0.0	0.0	0.0	1	1.003	0.0	1.0	1	1.108	0.898				
	46	1	-35.89	-17.32	0.0	0.0	2	1.003	0.0	1.0	1	1.108	0.898				
	47	2	53.25	0.0	0.0	0.0	2	1.003	0.0	1.0	1	1.108	0.898				
	48	1	55.04	24.01	0.0	0.0	2	1.003	0.0	1.0	1	1.108	0.898				
	49	1	0.0	0.0	0.0	-80.0	2	1.003	0.0	1.0	1	1.108	0.898				
	50	1	172.41	62.09	0.0	0.0	2	1.003	0.0	1.0	1	1.108	0.898				
	51	1	115.97999999999999	-58.77	0.0	0.0	2	1.003	0.0	1.0	1	1.108	0.898				
	52	1	0.0	0.0	0.0	0.0	2	1.003	0.0	1.0	1	1.108	0.898				
	53	1	0.0	0.0	0.0	0.0	2	1.003	0.0	1.0	1	1.108	0.898				
	54	1	74.1	29.03	0.0	0.0	2	1.003	0.0	1.0	1	1.108	0.898				
	55	1	427.39000000000004	126.16000000000001	0.0	0.0	2	1.003	0.0	1.0	1	1.108	0.898				
	56	1	0.0	0.0	0.0	0.0	2	1.003	0.0	1.0	1	1.108	0.898				
	57	1	62.17	24.03	0.0	0.0	2	1.003	0.0	1.0	1	1.108	0.898				
	58	1	59.47	25.47	0.0	0.0	2	1.003	0.0	1.0	1	1.108	0.898				
	59	1	480.82000000000005	-6.570000000000001	0.0	0.0	2	1.003	0.0	1.0	1	1.108	0.898				
	60	1	-1459.73	1687.42	0.0	2146.0	2	1.003	0.0	1.0	1	1.108	0.898				
	61	1	185.63	75.27	0.0	0.0	2	1.003	0.0	1.0	1	1.108	0.898				
	62	1	96.01	18.56	0.0	0.0	2	1.003	0.0	1.0	1	1.108	0.898				
	63	1	-69.23	30.320000000000004	0.0	-108.0	2	1.003	0.0	1.0	1	1.108	0.898				
	64	1	0.0	0.0	0.0	0.0	2	1.003	0.0	1.0	1	1.108	0.898				
	65	2	46.97	0.0	0.0	0.0	1	1.003	0.0	1.0	1	1.108	0.898				
	66	1	774.37	298.97	0.0	0.0	1	1.003	0.0	1.0	1	1.108	0.898				
	67	1	78.5	31.52	0.0	0.0	1	1.003	0.0	1.0	1	1.108	0.898				
	68	1	-35.37	174.17	0.0	576.85	1	1.003	0.0	1.0	1	1.108	0.898				
	69	1	-23.29	20.73	0.0	0.0	1	1.003	0.0	1.0	1	1.108	0.898				
	70	2	51.910000000000004	0.0	0.0	0.0	1	1.003	0.0	1.0	1	1.108	0.898				
	71	1	1486.08	1816.85	0.0	792.0	1	1.003	0.0	1.0	1	1.108	0.898				
	72	1	0.0	0.0	0.0	462.0	1	1.003	0.0	1.0	1	1.108	0.898				
	73	1	-781.91	-53.83	0.0	0.0	1	1.003	0.0	1.0	1	1.108	0.898				
	74	1	0.0	0.0	0.0	0.0	1	1.003	0.0	1.0	1	1.108	0.898				
	75	1	1223.08	413.69999999999993	0.0	0.0	1	1.003	0.0	1.0	1	1.108	0.898				
	76	1	1617.7700000000002	1164.73	0.0	1019.35	1	1.003	0.0	1.0	1	1.108	0.898				
	77	3	54.24	0.0	0.0	0.0	1	1.003	0.0	1.0	1	1.108	0.898				
	78	1	1780.83	538.1	0.0	550.0	1	1.003	0.0	1.0	1	1.108	0.898				
	79	2	53.90999999999999	0.0	0.0	0.0	1	1.003	0.0	1.0	1	1.108	0.898				
	80	1	2289.75	396.38	0.0	1200.0	1	1.003	0.0	1.0	1	1.108	0.898				
	81	1	0.0	0.0	0.0	-220.00000000000003	1	1.003	0.0	1.0	1	1.108	0.898				
	82	1	-30.36	-92.62	0.0	-674.0	1	1.003	0.0	1.0	1	1.108	0.898				
	83	1	-185.65	-127.12	0.0	-110.00000000000001	1	1.003	0.0	1.0	1	1.108	0.898				
	84	1	0.0	0.0	0.0	-220.00000000000003	1	1.003	0.0	1.0	1	1.108	0.898				
	85	1	307.42	-452.74	0.0	-869.9999999999999	1	1.003	0.0	1.0	1	1.108	0.898				
	86	1	0.0	0.0	0.0	0.0	1	1.003	0.0	1.0	1	1.108	0.898				
	87	1	0.0	0.0	0.0	0.0	1	1.003	0.0	1.0	1	1.108	0.898				
	88	1	0.0	0.0	0.0	0.0	1	1.003	0.0	1.0	1	1.108	0.898				
	89	1	0.0	0.0	0.0	0.0	1	1.003	0.0	1.0	1	1.108	0.898				
	90	1	0.0	0.0	0.0	0.0	1	1.003	0.0	1.0	1	1.108	0.898				
	91	1	0.0	0.0	0.0	0.0	1	1.003	0.0	1.0	1	1.108	0.898				
	92	1	0.0	0.0	0.0	0.0	1	1.003	0.0	1.0	1	1.108	0.898				
	93	1	0.0	0.0	0.0	0.0	1	1.003	0.0	1.0	1	1.108	0.898				
	94	1	0.0	0.0	0.0	0.0	1	1.003	0.0	1.0	1	1.108	0.898				
	95	1	0.0	0.0	0.0	0.0	1	1.003	0.0	1.0	1	1.108	0.898				
	96	1	0.0	0.0	0.0	0.0	1	1.003	0.0	1.0	1	1.108	0.898				
	97	1	0.0	0.0	0.0	0.0	1	1.003	0.0	1.0	1	1.108	0.898				
	98	1	0.0	0.0	0.0	0.0	1	1.003	0.0	1.0	1	1.108	0.898				
	99	1	0.0	0.0	0.0	0.0	1	1.003	0.0	1.0	1	1.108	0.898				
	100	1	-19.81	21.24	0.0	0.0	3	1.003	0.0	1.0	1	1.108	0.898				
	101	1	107.66	-82.5	0.0	0.0	3	1.003	0.0	1.0	1	1.108	0.898				
	102	1	23.75	26.25	0.0	0.0	2	1.003	0.0	1.0	1	1.108	0.898				
	103	2	54.620000000000005	0.0	0.0	0.0	2	1.003	0.0	1.0	1	1.108	0.898				
	104	1	167.6	-8.03	0.0	-91.0	2	1.003	0.0	1.0	1	1.108	0.898				
	105	1	14.279999999999998	-0.11	0.0	0.0	3	1.003	0.0	1.0	1	1.108	0.898				
	106	1	3.7800000000000002	0.0	0.0	0.0	3	1.003	0.0	1.0	1	1.108	0.898				
	107	1	131.26	13.819999999999999	0.0	0.0	2	1.003	0.0	1.0	1	1.108	0.898				
	108	1	28.610000000000003	-310.03	0.0	-327.0	2	1.003	0.0	1.0	1	1.108	0.898				
	109	1	427.13	35.78	0.0	-130.0	2	1.003	0.0	1.0	1	1.108	0.898				
	110	1	19.35	21.06	0.0	0.0	2	1.003	0.0	1.0	1	1.108	0.898				
	111	1	-99.3	63.54	0.0	0.0	3	1.003	0.0	1.0	1	1.108	0.898				
	112	2	54.11	0.0	0.0	0.0	3	1.003	0.0	1.0	1	1.108	0.898				
	113	1	75.99	0.0	0.0	-128.0	3	1.003	0.0	1.0	1	1.108	0.898				
	114	1	0.0	0.0	0.0	-91.0	3	1.003	0.0	1.0	1	1.108	0.898				
	115	1	-0.38	115.26	0.0	-91.0	3	1.003	0.0	1.0	1	1.108	0.898				
	116	2	51.07000000000001	0.0	0.0	0.0	3	1.003	0.0	1.0	1	1.108	0.898				
	117	1	438.1600000000001	54.83	0.0	-32.0	3	1.003	0.0	1.0	1	1.108	0.898				
	118	2	54.76	0.0	0.0	0.0	3	1.003	0.0	1.0	1	1.108	0.898				
	119	1	2650.16	3818.43	0.0	1500.0	3	1.003	0.0	1.0	1	1.108	0.898				
	120	1	0.0	0.0	0.0	0.0	3	1.003	0.0	1.0	1	1.108	0.898				
	121	1	0.0	0.0	0.0	0.0	3	1.003	0.0	1.0	1	1.108	0.898				
	122	1	0.0	0.0	0.0	0.0	3	1.003	0.0	1.0	1	1.108	0.898				
	123	1	0.0	0.0	0.0	0.0	3	1.003	0.0	1.0	1	1.108	0.898				
	124	1	0.0	0.0	0.0	0.0	3	1.003	0.0	1.0	1	1.108	0.898				
	125	1	0.0	0.0	0.0	0.0	3	1.003	0.0	1.0	1	1.108	0.898				
	126	1	0.0	0.0	0.0	0.0	3	1.003	0.0	1.0	1	1.108	0.898				
	127	1	0.0	0.0	0.0	0.0	3	1.003	0.0	1.0	1	1.108	0.898				
	128	1	0.0	0.0	0.0	0.0	3	1.003	0.0	1.0	1	1.108	0.898				
	129	1	0.0	0.0	0.0	0.0	3	1.003	0.0	1.0	1	1.108	0.898				
	130	1	0.0	0.0	0.0	0.0	3	1.003	0.0	1.0	1	1.108	0.898				
	131	1	0.0	0.0	0.0	0.0	3	1.003	0.0	1.0	1	1.108	0.898				
	132	1	0.0	0.0	0.0	0.0	2	1.003	0.0	1.0	1	1.108	0.898				
	133	1	0.0	0.0	0.0	0.0	2	1.003	0.0	1.0	1	1.108	0.898				
	134	1	0.0	0.0	0.0	0.0	2	1.003	0.0	1.0	1	1.108	0.898				
	135	1	0.0	0.0	0.0	0.0	2	1.003	0.0	1.0	1	1.108	0.898				
	136	1	414.7200000000001	17.91	0.0	0.0	2	1.003	0.0	1.0	1	1.108	0.898				
	137	1	95.26	17.51	0.0	0.0	2	1.003	0.0	1.0	1	1.108	0.898				
	138	2	46.32	0.0	0.0	0.0	2	1.003	0.0	1.0	1	1.108	0.898				
	139	1	471.1700000000001	-10.81	0.0	-319.0	2	1.003	0.0	1.0	1	1.108	0.898				
	140	2	48.52	0.0	0.0	0.0	2	1.003	0.0	1.0	1	1.108	0.898				
	141	1	1730.2800000000002	609.69	0.0	0.0	2	1.003	0.0	1.0	1	1.108	0.898				
	142	1	107.93000000000002	-26.179999999999996	0.0	0.0	2	1.003	0.0	1.0	1	1.108	0.898				
	143	1	174.36	60.86	0.0	0.0	2	1.003	0.0	1.0	1	1.108	0.898				
	144	2	45.88	0.0	0.0	0.0	2	1.003	0.0	1.0	1	1.108	0.898				
	145	1	1540.95	1238.88	0.0	400.0	2	1.003	0.0	1.0	1	1.108	0.898				
	146	1	0.0	0.0	0.0	0.0	2	1.003	0.0	1.0	1	1.108	0.898				
	147	1	0.0	0.0	0.0	-196.0	2	1.003	0.0	1.0	1	1.108	0.898				
	148	2	53.67999999999999	0.0	0.0	0.0	2	1.003	0.0	1.0	1	1.108	0.898				
	149	2	49.94	0.0	0.0	0.0	2	1.003	0.0	1.0	1	1.108	0.898				
	150	1	1578.86	75.65	0.0	0.0	2	1.003	0.0	1.0	1	1.108	0.898				
	151	1	559.23	78.48	0.0	0.0	2	1.003	0.0	1.0	1	1.108	0.898				
	152	1	191.17	45.01	0.0	0.0	2	1.003	0.0	1.0	1	1.108	0.898				
	153	1	0.0	0.0	0.0	0.0	2	1.003	0.0	1.0	1	1.108	0.898				
	154	1	511.38000000000005	-10.66	0.0	-190.0	2	1.003	0.0	1.0	1	1.108	0.898				
	155	1	210.21999999999997	74.94	0.0	-60.0	1	1.003	0.0	1.0	1	1.108	0.898				
	156	1	16.91	12.04	0.0	0.0	1	1.003	0.0	1.0	1	1.108	0.898				
	157	1	79.39	-8.29	0.0	0.0	1	1.003	0.0	1.0	1	1.108	0.898				
	158	1	53.010000000000005	41.07	0.0	-220.00000000000003	1	1.003	0.0	1.0	1	1.108	0.898				
	159	2	53.7	0.0	0.0	0.0	1	1.003	0.0	1.0	1	1.108	0.898				
	160	1	-29.29	11.72	0.0	0.0	1	1.003	0.0	1.0	1	1.108	0.898				
	161	1	137.66	104.12000000000002	0.0	0.0	1	1.003	0.0	1.0	1	1.108	0.898				
	162	2	47.79	0.0	0.0	0.0	1	1.003	0.0	1.0	1	1.108	0.898				
	163	1	0.0	0.0	0.0	0.0	1	1.003	0.0	1.0	1	1.108	0.898				
	164	1	15.049999999999999	12.06	0.0	-18.0	1	1.003	0.0	1.0	1	1.108	0.898				
	165	1	73.31	70.0	0.0	0.0	1	1.003	0.0	1.0	1	1.108	0.898				
	166	1	171.78	-39.78	0.0	-50.0	1	1.003	0.0	1.0	1	1.108	0.898				
	167	1	95.68	75.76	0.0	0.0	1	1.003	0.0	1.0	1	1.108	0.898				
	168	1	0.0	0.0	0.0	0.0	3	1.003	0.0	1.0	1	1.108	0.898				
	169	1	0.0	0.0	0.0	0.0	3	1.003	0.0	1.0	1	1.108	0.898				
	170	1	0.0	0.0	0.0	0.0	3	1.003	0.0	1.0	1	1.108	0.898				
	171	1	0.0	0.0	0.0	0.0	3	1.003	0.0	1.0	1	1.108	0.898				
	172	1	0.0	0.0	0.0	0.0	3	1.003	0.0	1.0	1	1.108	0.898				
	173	1	0.0	0.0	0.0	0.0	3	1.003	0.0	1.0	1	1.108	0.898				
	174	1	0.0	0.0	0.0	0.0	2	1.003	0.0	1.0	1	1.108	0.898				
	175	1	0.0	0.0	0.0	0.0	2	1.003	0.0	1.0	1	1.108	0.898				
	176	1	0.0	0.0	0.0	0.0	2	1.003	0.0	1.0	1	1.108	0.898				
	177	1	0.0	0.0	0.0	0.0	2	1.003	0.0	1.0	1	1.108	0.898				
	178	1	0.0	0.0	0.0	0.0	2	1.003	0.0	1.0	1	1.108	0.898				
	179	1	0.0	0.0	0.0	0.0	2	1.003	0.0	1.0	1	1.108	0.898				
	180	1	0.0	0.0	0.0	-220.00000000000003	1	1.003	0.0	1.0	1	1.108	0.898				
];

%% generator data
%    bus    Pg    Qg    Qmax    Qmin    Vg    mBase    status    Pmax    Pmin    Pc1    Pc2    Qc1min    Qc1max    Qc2min    Qc2max    ramp_agc    ramp_10    ramp_30    ramp_q    apf
mpc.gen = [
	4	994.0850000000002	-7.9399999999999995	320.28	-336.16	1.003	1600.0	1	1683.12	305.05	0.0	0.0	0.0	0.0	0.0	0.0	0.0	0.0	0.0	0.0	1683.1216				
	6	1084.63	-30.870000000000005	378.83	-440.56999999999994	1.003	2100.0	1	1938.1800000000003	231.07999999999998	0.0	0.0	0.0	0.0	0.0	0.0	0.0	0.0	0.0	0.0	1938.1774				
	9	2652.8	141.81	701.97	-418.35	1.003	4300.0	1	4498.26	807.3399999999999	0.0	0.0	0.0	0.0	0.0	0.0	0.0	0.0	0.0	0.0	4498.2554				
	11	2402.61	-17.94	899.03	-934.91	1.003	4100.0	1	3956.96	848.26	0.0	0.0	0.0	0.0	0.0	0.0	0.0	0.0	0.0	0.0	3956.9636				
	13	1929.025	207.49	697.21	-282.23	1.003	3400.0	1	3299.94	558.11	0.0	0.0	0.0	0.0	0.0	0.0	0.0	0.0	0.0	0.0	3299.9353				
	15	3479.4250000000006	361.045	1405.28	-683.19	1.003	5300.0	1	5393.53	1565.32	0.0	0.0	0.0	0.0	0.0	0.0	0.0	0.0	0.0	0.0	5393.5254				
	18	1305.43	23.19	319.0	-272.62	1.003	2000.0	1	2074.45	536.41	0.0	0.0	0.0	0.0	0.0	0.0	0.0	0.0	0.0	0.0	2074.4534				
	30	6392.915	11.185	4070.83	-4048.46	1.003	8900.0	1	9757.06	3028.77	0.0	0.0	0.0	0.0	0.0	0.0	0.0	0.0	0.0	0.0	9757.0576				
	35	5083.72	1136.34	5544.98	-3272.2999999999997	1.003	9000.0	1	8718.16	1449.28	0.0	0.0	0.0	0.0	0.0	0.0	0.0	0.0	0.0	0.0	8718.1563				
	36	2254.335	129.4	652.92	-394.12	1.003	3300.0	1	3493.62	1015.05	0.0	0.0	0.0	0.0	0.0	0.0	0.0	0.0	0.0	0.0	3493.625				
	40	191.725	48.255	247.18999999999997	-150.68	1.003	400.0	1	362.6	20.85	0.0	0.0	0.0	0.0	0.0	0.0	0.0	0.0	0.0	0.0	362.5961				
	43	400.44500000000005	71.525	311.04	-167.99	1.003	650.0	1	673.96	126.93	0.0	0.0	0.0	0.0	0.0	0.0	0.0	0.0	0.0	0.0	673.957				
	45	2010.625	89.785	765.95	-586.38	1.003	3600.0	1	3528.4	492.8500000000001	0.0	0.0	0.0	0.0	0.0	0.0	0.0	0.0	0.0	0.0	3528.4009				
	47	152.35	0.69	100.88	-99.5	1.003	220.0	1	233.68	71.02	0.0	0.0	0.0	0.0	0.0	0.0	0.0	0.0	0.0	0.0	233.6808				
	65	2932.815	353.385	1553.56	-846.79	1.003	5800.0	1	5459.92	405.71000000000004	0.0	0.0	0.0	0.0	0.0	0.0	0.0	0.0	0.0	0.0	5459.918				
	70	1239.795	-79.99	642.85	-802.8299999999999	1.003	2600.0	1	2377.38	102.21000000000001	0.0	0.0	0.0	0.0	0.0	0.0	0.0	0.0	0.0	0.0	2377.3799				
	77	7403.065	135.05	2448.15	-2178.05	1.003	10400.0	1	11165.05	3641.0800000000004	0.0	0.0	0.0	0.0	0.0	0.0	0.0	0.0	0.0	0.0	11165.0508				
	79	10354.215	2358.21	6030.37	-1313.95	1.003	20000.0	1	18208.22	2500.21	0.0	0.0	0.0	0.0	0.0	0.0	0.0	0.0	0.0	0.0	18208.2246				
	103	737.535	-14.145	327.94	-356.23	1.003	1500.0	1	1359.89	115.18000000000002	0.0	0.0	0.0	0.0	0.0	0.0	0.0	0.0	0.0	0.0	1359.8911				
	112	1328.115	-16.82	421.04999999999995	-454.69	1.003	2100.0	1	2247.11	409.11999999999995	0.0	0.0	0.0	0.0	0.0	0.0	0.0	0.0	0.0	0.0	2247.1069				
	116	805.425	-7.445	275.09	-289.98	1.003	1200.0	1	1298.69	312.16	0.0	0.0	0.0	0.0	0.0	0.0	0.0	0.0	0.0	0.0	1298.6926				
	118	4482.46	1027.675	2735.8	-680.45	1.003	6900.0	1	7386.7699999999995	1578.15	0.0	0.0	0.0	0.0	0.0	0.0	0.0	0.0	0.0	0.0	7386.77				
	138	1178.09	-18.965	307.09	-345.02	1.003	2000.0	1	2043.61	312.57	0.0	0.0	0.0	0.0	0.0	0.0	0.0	0.0	0.0	0.0	2043.6079				
	140	3469.755	594.35	2149.72	-961.0199999999999	1.003	6400.0	1	6145.22	794.29	0.0	0.0	0.0	0.0	0.0	0.0	0.0	0.0	0.0	0.0	6145.2231				
	144	1866.725	262.135	856.6	-332.33	1.003	3400.0	1	3135.12	598.33	0.0	0.0	0.0	0.0	0.0	0.0	0.0	0.0	0.0	0.0	3135.1221				
	148	2041.235	252.83	746.55	-240.89000000000001	1.003	3400.0	1	3402.54	679.93	0.0	0.0	0.0	0.0	0.0	0.0	0.0	0.0	0.0	0.0	3402.5374				
	149	2590.31	-21.69	582.17	-625.55	1.003	4400.0	1	4251.85	928.7699999999999	0.0	0.0	0.0	0.0	0.0	0.0	0.0	0.0	0.0	0.0	4251.854				
	159	2214.085	697.35	10604.58	-9209.88	1.003	3300.0	1	3483.05	945.12	0.0	0.0	0.0	0.0	0.0	0.0	0.0	0.0	0.0	0.0	3483.0479				
	162	501.62500000000006	-587.665	9359.49	-10534.82	1.003	900.0	1	839.66	163.59	0.0	0.0	0.0	0.0	0.0	0.0	0.0	0.0	0.0	0.0	839.6633				
];

%% branch data
%    f_bus    t_bus    r    x    b    rateA    rateB    rateC    ratio    angle    status    angmin    angmax
mpc.branch = [
	2	3	1.6713304376215934e-5	0.014608735461025889	0.036799227506936885	2196.0	2196.0	2196.0	0	0	1	-29.999999999999996	29.999999999999996								
	2	4	2.3417723911627315e-5	0.017292336987330473	0.010213907814734443	1853.0	1853.0	1853.0	0.9545	0.0	1	-29.999999999999996	29.999999999999996								
	3	8	0.0018323657855437575	0.02035052049802949	2.5877065453171495	1605.9999999999998	1605.9999999999998	1605.9999999999998	0	0	1	-29.999999999999996	29.999999999999996								
	5	6	1.2003852409896796e-5	0.01238060498405618	0.010200978432260479	2589.0	2589.0	2589.0	0	0	1	-29.999999999999996	29.999999999999996								
	5	11	1.762267632275511e-5	0.015000902227180733	0.0102056617359064	2137.0	2137.0	2137.0	0	0	1	-29.999999999999996	29.999999999999996								
	17	5	0.009947495995304442	0.11199840280202555	1.7263383673618853	291.0	291.0	291.0	0	0	1	-29.999999999999996	29.999999999999996								
	5	160	0.009174260085309964	0.15486501905638397	2.5261694429682406	234.0	234.0	234.0	0	0	1	-29.999999999999996	29.999999999999996								
	7	8	9.476912358156071e-6	0.01100056569123053	0.010229264541468226	2914.0	2914.0	2914.0	1.063	0.0	1	-29.999999999999996	29.999999999999996								
	7	8	9.4865176617665e-6	0.011006139074767107	0.010200344462251215	2914.0	2914.0	2914.0	1.063	0.0	1	-29.999999999999996	29.999999999999996								
	7	28	1.3029337169814911e-6	0.004078898393517362	0.010254936417123278	5501.81	7856.0	7856.0	0	0	1	-29.999999999999996	29.999999999999996								
	8	9	2.726055547881086e-6	0.005899959792513552	0.01020163991782169	5432.0	5432.0	5432.0	0	0	1	-29.999999999999996	29.999999999999996								
	8	10	0.00028546294721055587	0.014069244662481542	0.010214716201050498	2322.0	2322.0	2322.0	0	0	1	-29.999999999999996	29.999999999999996								
	8	10	0.0002911349184446671	0.013954397269229524	0.010216470852069903	2306.0	2306.0	2306.0	0	0	1	-29.999999999999996	29.999999999999996								
	8	17	0.0004989615128389058	0.005288992034838928	0.06681798576414359	2202.27	6021.0	6021.0	0	0	1	-29.999999999999996	29.999999999999996								
	163	8	0.004873677714169862	0.044269238633473124	0.694168877227124	731.0	731.0	731.0	0	0	1	-29.999999999999996	29.999999999999996								
	12	13	3.470854789119932e-6	0.006657327329301963	0.010206331421993904	4813.0	4813.0	4813.0	1.08	0.0	1	-29.999999999999996	29.999999999999996								
	12	20	3.146636865738839e-6	0.00633877020038382	0.08679546359285954	5055.0	5055.0	5055.0	0	0	1	-29.999999999999996	29.999999999999996								
	12	22	1.1057629160559073e-5	0.01188262988833812	0.010212398003661154	2698.0	2698.0	2698.0	0	0	1	-29.999999999999996	29.999999999999996								
	12	139	0.0027895619373817385	0.021021341707105134	0.8892298527438951	1506.0	1506.0	1506.0	0	0	1	-29.999999999999996	29.999999999999996								
	21	14	3.1487066876449345e-6	0.006340854642581272	0.03667093861079635	5055.0	5055.0	5055.0	0	0	1	-29.999999999999996	29.999999999999996								
	14	24	5.343221998106012e-6	0.008260061220918371	0.014142510635142479	3879.9999999999995	3879.9999999999995	3879.9999999999995	0	0	1	-29.999999999999996	29.999999999999996								
	14	26	2.5186829426252275e-5	0.01793362441236959	0.01022949573445477	1786.0	1786.0	1786.0	0	0	1	-29.999999999999996	29.999999999999996								
	29	14	2.928859656961193e-6	0.006115486038059019	0.014727989625532265	5237.0	5237.0	5237.0	0	0	1	-29.999999999999996	29.999999999999996								
	16	15	5.976519878866538e-5	0.0049306288279237975	0.07062835855168884	6473.999999999999	6473.999999999999	6473.999999999999	1.1061	0.0	1	-29.999999999999996	29.999999999999996								
	16	19	0.00040177462522777524	0.009642590962338092	1.0117726495268804	3336.0	3336.0	3336.0	0	0	1	-29.999999999999996	29.999999999999996								
	16	19	0.0003993786613926993	0.009585087831073105	1.0064156511019464	3336.0	3336.0	3336.0	0	0	1	-29.999999999999996	29.999999999999996								
	16	136	0.0024893720318398334	0.028517246152046035	2.085782050787246	1077.0	1077.0	1077.0	0	0	1	-29.999999999999996	29.999999999999996								
	16	136	0.0026219315422238943	0.030035794631022204	2.228508825078964	1077.0	1077.0	1077.0	0	0	1	-29.999999999999996	29.999999999999996								
	17	18	2.8197063942855526e-6	0.006000447557368975	0.01020334158087217	5342.0	5342.0	5342.0	1.0435	0.0	1	-29.999999999999996	29.999999999999996								
	23	19	1.0990238425158866e-5	0.011846365229646822	0.01020443458115698	2698.0	2698.0	2698.0	0	0	1	-29.999999999999996	29.999999999999996								
	25	19	5.344695169881227e-6	0.00826119982655208	0.05867934809254835	3879.9999999999995	3879.9999999999995	3879.9999999999995	0	0	1	-29.999999999999996	29.999999999999996								
	20	21	0.0007637440681439824	0.017893432192389543	1.5409542272428045	1775.0	1775.0	1775.0	0	0	1	-29.999999999999996	29.999999999999996								
	22	23	0.002446402648737549	0.059535886778490615	4.910620918846795	546.0	546.0	546.0	0	0	1	-29.999999999999996	29.999999999999996								
	24	25	0.0017813621444469126	0.04223519711666417	3.3619876209029305	755.0	755.0	755.0	0	0	1	-29.999999999999996	29.999999999999996								
	26	27	0.002063846367845173	0.04944257434573674	3.9523242018440987	646.0	646.0	646.0	0	0	1	-29.999999999999996	29.999999999999996								
	27	139	2.523239389842166e-5	0.017949838547057152	0.16055349553717424	1786.0	1786.0	1786.0	0	0	1	-29.999999999999996	29.999999999999996								
	28	29	0.0018192217367159135	0.04305491028223196	3.3532335425542055	765.0	765.0	765.0	0	0	1	-29.999999999999996	29.999999999999996								
	31	30	1.762158510499328e-7	0.0015000448030351666	0.010204187121389846	21366.0	21366.0	21366.0	1.05	0.0	1	-29.999999999999996	29.999999999999996								
	31	32	0.003493709230579697	0.06987417202660663	4.594204367255204	458.0	458.0	458.0	0	0	1	-29.999999999999996	29.999999999999996								
	31	80	0.0008241058193116718	0.02373027495704989	3.3022928419848427	1341.0	1341.0	1341.0	0	0	1	-29.999999999999996	29.999999999999996								
	32	33	7.831891730420724e-6	0.010000344292302897	0.021131713496430678	3204.9999999999995	3204.9999999999995	3204.9999999999995	1.1	0.0	1	-29.999999999999996	29.999999999999996								
	33	34	0.0019718092348656262	0.01971809228582412	0.9045678834110678	855.66	1595.0	1595.0	0	0	1	-29.999999999999996	29.999999999999996								
	34	35	3.132382464887506e-7	0.001999949983354673	0.010209021534677733	16025.0	16025.0	16025.0	0	0	1	-29.999999999999996	29.999999999999996								
	85	36	1.656963055698241e-6	0.004599791351080085	0.010209052719499168	6968.000000000001	6968.000000000001	6968.000000000001	0	0	1	-29.999999999999996	29.999999999999996								
	37	38	0.000759285394909013	0.01909500125394338	1.3352022865477047	1721.0	1721.0	1721.0	0	0	1	-29.999999999999996	29.999999999999996								
	37	56	0.0008116121882301283	0.016509379488097005	1.212210640648556	1920.0	1920.0	1920.0	0	0	1	-29.999999999999996	29.999999999999996								
	37	64	1.9798300508110512e-7	0.0015899947868841	0.13490598406624585	5755.18	20157.0	20157.0	0	0	1	-29.999999999999996	29.999999999999996								
	37	64	1.9801313524929254e-7	0.0015901157694579327	0.07560955717444008	5757.14	20157.0	20157.0	0	0	1	-29.999999999999996	29.999999999999996								
	38	48	0.00012801877407767924	0.006824385342099246	0.010463630147484082	4624.0	4624.0	4624.0	1.05	0.0	1	-29.999999999999996	29.999999999999996								
	39	40	0.0004949291726775291	0.023558625917350553	0.01078019551530579	1347.0	1347.0	1347.0	0	0	1	-29.999999999999996	29.999999999999996								
	39	46	0.00222972531310074	0.033758645832747416	0.09370679014365481	892.46	956.0	956.0	0	0	1	-29.999999999999996	29.999999999999996								
	39	48	0.0028857659850137435	0.03781348451746827	0.09031349259508221	841.0	841.0	841.0	0	0	1	-29.999999999999996	29.999999999999996								
	39	59	0.003076680835200932	0.04656840011415634	0.12536716620808364	684.0	684.0	684.0	0	0	1	-29.999999999999996	29.999999999999996								
	39	60	0.002274588030925867	0.03444088521609796	0.03612167746973142	832.1	935.0	935.0	0	0	1	-29.999999999999996	29.999999999999996								
	55	41	0.0004695179335524261	0.007222584374961574	0.010202148864632476	754.41	4424.0	4424.0	0	0	1	-29.999999999999996	29.999999999999996								
	41	58	0.0003495536523289422	0.0053531645014029535	0.01020846033610699	822.5799999999999	5967.0	5967.0	0	0	1	-29.999999999999996	29.999999999999996								
	42	43	0.0006201278429410743	0.027103859982472604	0.010206659857696134	1264.0	1264.0	1264.0	1.0491	0.0	1	-29.999999999999996	29.999999999999996								
	50	42	0.002152084749174363	0.033474699266998385	0.07975989955501467	761.15	935.0	935.0	0	0	1	-29.999999999999996	29.999999999999996								
	50	42	0.0023763486671320613	0.03663371015880911	0.10240626710196064	872.0000000000001	872.0000000000001	872.0000000000001	0	0	1	-29.999999999999996	29.999999999999996								
	57	42	0.0019809779519419373	0.03029614980846773	0.11112156185175406	768.89	1041.0	1041.0	0	0	1	-29.999999999999996	29.999999999999996								
	42	58	0.002839776246536189	0.04341522520734054	0.08746198645397238	745.0	745.0	745.0	0	0	1	-29.999999999999996	29.999999999999996								
	44	45	2.117614845849195e-6	0.005200022206814542	0.010206995071420857	6164.0	6164.0	6164.0	1.025	0.0	1	-29.999999999999996	29.999999999999996								
	44	160	0.0017859498494998004	0.02430876162177699	0.30759229172093167	1305.0	1305.0	1305.0	0	0	1	-29.999999999999996	29.999999999999996								
	44	160	0.0017831389896416855	0.02427050269698982	0.4540059545564311	1305.0	1305.0	1305.0	0	0	1	-29.999999999999996	29.999999999999996								
	48	46	0.00029025859851698104	0.004343870059147255	0.08630189653724278	841.15	7369.0	7369.0	0	0	1	-29.999999999999996	29.999999999999996								
	48	47	0.006177957911673448	0.1420433359128143	0.06785985381705201	280.0	280.0	280.0	1.0478	0.0	1	-29.999999999999996	29.999999999999996								
	49	48	0.0002764683131425519	0.014737886971101132	0.01020680475218632	2312.0	2312.0	2312.0	1.05	0.0	1	-29.999999999999996	29.999999999999996								
	48	55	0.0022917310136638456	0.01584196590020648	0.01020499668617948	855.66	2004.0	2004.0	0	0	1	-29.999999999999996	29.999999999999996								
	48	55	0.002293739275688891	0.01585584834027743	0.08563245487300598	905.33	2004.0	2004.0	0	0	1	-29.999999999999996	29.999999999999996								
	48	59	0.0014088776299763823	0.009662302607945445	0.03699060271937291	772.89	3279.9999999999995	3279.9999999999995	0	0	1	-29.999999999999996	29.999999999999996								
	48	59	0.001409816672382824	0.009668742707279233	0.010212713926501974	912.29	3279.9999999999995	3279.9999999999995	0	0	1	-29.999999999999996	29.999999999999996								
	48	59	0.0016082762105919972	0.00969960372715388	0.01021621655062588	763.48	3257.0	3257.0	0	0	1	-29.999999999999996	29.999999999999996								
	48	59	0.0016091212991309288	0.009704700503368972	0.10971624151714732	911.69	3257.0	3257.0	0	0	1	-29.999999999999996	29.999999999999996								
	48	60	0.00026949373836413	0.003922631079663187	0.010215341890427216	837.06	8136.0	8136.0	0	0	1	-29.999999999999996	29.999999999999996								
	48	60	0.00027063839517784923	0.003939292195494398	0.03658631517470195	783.45	8136.0	8136.0	0	0	1	-29.999999999999996	29.999999999999996								
	48	60	0.0002699115076871762	0.0039287119442494925	0.010272903561072121	804.85	8136.0	8136.0	0	0	1	-29.999999999999996	29.999999999999996								
	48	62	0.0013778969915180942	0.011142993054643432	0.010200193551309718	758.56	2851.0	2851.0	0	0	1	-29.999999999999996	29.999999999999996								
	48	62	0.0013668967235136486	0.011054034365739743	0.010773681963593273	759.88	2851.0	2851.0	0	0	1	-29.999999999999996	29.999999999999996								
	64	49	0.0008389013049649655	0.019042048599877688	1.6969497756004204	1700.0	1700.0	1700.0	0	0	1	-29.999999999999996	29.999999999999996								
	50	57	0.0003700760132018997	0.0036607519140360424	0.01990652437509913	880.09	8713.0	8713.0	0	0	1	-29.999999999999996	29.999999999999996								
	50	58	0.0005502645226325853	0.0058628183666592	0.04956181978792449	835.5	5446.0	5446.0	0	0	1	-29.999999999999996	29.999999999999996								
	52	51	0.0005933478899596179	0.014994604968626351	0.010203011306661776	2148.0	2148.0	2148.0	1.0017	0.0	1	-29.999999999999996	29.999999999999996								
	53	51	0.0005879608322209733	0.014858467633145045	0.010500256854651828	2148.0	2148.0	2148.0	1.0017	0.0	1	-29.999999999999996	29.999999999999996								
	54	51	0.00028795222393801213	0.01276588157385192	0.04018197344631743	2410.0	2410.0	2410.0	0	0	1	-29.999999999999996	29.999999999999996								
	54	51	0.0003089278829038197	0.013798778313570105	0.03946745049181288	2392.0	2392.0	2392.0	0	0	1	-29.999999999999996	29.999999999999996								
	52	63	0.010756427189338525	0.07946687332456905	0.4391383237751913	401.99999999999994	401.99999999999994	401.99999999999994	0	0	1	-29.999999999999996	29.999999999999996								
	53	63	0.010771496231562094	0.07957820114535773	0.41916383597597	401.99999999999994	401.99999999999994	401.99999999999994	0	0	1	-29.999999999999996	29.999999999999996								
	57	54	0.0007307954493237086	0.0102611689628273	0.05309279975287858	765.61	3119.0	3119.0	0	0	1	-29.999999999999996	29.999999999999996								
	57	54	0.0007301929966307094	0.010252709866839195	0.43979352170054337	898.03	3119.0	3119.0	0	0	1	-29.999999999999996	29.999999999999996								
	56	55	0.00013124451845529956	0.013992681886726952	0.01090943850060202	2313.0	2313.0	2313.0	1.0106	0.0	1	-29.999999999999996	29.999999999999996								
	56	55	0.0001242329663658965	0.01324514302675005	0.010205176698822573	2313.0	2313.0	2313.0	1.0106	0.0	1	-29.999999999999996	29.999999999999996								
	55	58	0.0011996179113130966	0.012540543526007126	0.01020304527022067	856.67	2565.0	2565.0	0	0	1	-29.999999999999996	29.999999999999996								
	55	58	0.0011950643230325285	0.012492941309225947	0.03829721832912032	852.17	2565.0	2565.0	0	0	1	-29.999999999999996	29.999999999999996								
	62	55	0.001270744359118514	0.009719208804967495	0.19664410524266554	868.54	3246.0	3246.0	0	0	1	-29.999999999999996	29.999999999999996								
	57	58	0.0010993744583413859	0.011883238447414906	0.06579090258809941	908.69	2684.0	2684.0	0	0	1	-29.999999999999996	29.999999999999996								
	60	61	1.0356199011481356e-7	0.0011499578965987515	0.010212078535229246	27869.0	27869.0	27869.0	1.0133	0.0	1	-29.999999999999996	29.999999999999996								
	137	61	0.0014162652487606483	0.026706715548584916	0.07128525126252667	848.66	1213.0	1213.0	0	0	1	-29.999999999999996	29.999999999999996								
	150	61	0.0006425632089050123	0.011734192708176034	0.010200159748949505	913.9900000000001	2696.0	2696.0	0	0	1	-29.999999999999996	29.999999999999996								
	150	61	0.0006674453722325977	0.012188579285303225	0.010232499691790601	773.57	2696.0	2696.0	0	0	1	-29.999999999999996	29.999999999999996								
	64	63	0.00020028559947068034	0.023413368003466873	0.010203218169377018	1371.0	1371.0	1371.0	0.9789	0.0	1	-29.999999999999996	29.999999999999996								
	139	64	0.001750817998511057	0.024687511643968436	0.5227001478362944	1267.0	1267.0	1267.0	0	0	1	-29.999999999999996	29.999999999999996								
	139	64	0.0017869300259617691	0.025196711389405532	0.4899640803454166	1267.0	1267.0	1267.0	0	0	1	-29.999999999999996	29.999999999999996								
	142	64	0.00020046840574505342	0.004109602315242961	0.371580504182254	5830.69	7808.0	7808.0	0	0	1	-29.999999999999996	29.999999999999996								
	66	65	1.9567554971855467e-6	0.00499861854190308	0.0102280031766448	6409.999999999999	6409.999999999999	6409.999999999999	1.09	0.0	1	-29.999999999999996	29.999999999999996								
	78	66	0.0006380982860221977	0.06745545654259835	4.901165305768149	434.0	434.0	434.0	0	0	1	-29.999999999999996	29.999999999999996								
	68	67	0.0009518692038396004	0.03197852385816865	0.010302175825597093	1072.0	1072.0	1072.0	0.9873	0.0	1	-29.999999999999996	29.999999999999996								
	69	68	0.00020540520401743573	0.012129176752213814	0.010213433600502893	2714.0	2714.0	2714.0	1.0238	0.0	1	-29.999999999999996	29.999999999999996								
	69	68	8.354551196516136e-5	0.00682288329459095	0.04313740867655659	4361.0	4361.0	4361.0	1.0238	0.0	1	-29.999999999999996	29.999999999999996								
	68	70	8.372298014302814e-6	0.010339604927256503	0.010208294876438909	3100.0	3100.0	3100.0	1.0455	0.0	1	-29.999999999999996	29.999999999999996								
	68	71	6.007073341129025e-5	0.001311544346075604	0.01025442181632476	828.29	24439.0	24439.0	0	0	1	-29.999999999999996	29.999999999999996								
	68	71	6.00313332991717e-5	0.0011606057770826184	0.045962256591126426	776.56	27592.0	27592.0	0	0	1	-29.999999999999996	29.999999999999996								
	69	72	1.000817945960585e-5	0.0003002453837888026	0.010210462924102815	5711.04	106769.0	106769.0	0	0	1	-29.999999999999996	29.999999999999996								
	69	72	9.998189827741296e-6	0.00029994569483287025	0.051036653071469686	5829.8	106769.0	106769.0	0	0	1	-29.999999999999996	29.999999999999996								
	69	76	0.00022945006376277836	0.004499216465147407	0.2291606049964612	5923.31	7097.0	7097.0	0	0	1	-29.999999999999996	29.999999999999996								
	69	76	0.00020069179309624432	0.004475426982739117	0.22239144799451263	6169.99	7179.000000000001	7179.000000000001	0	0	1	-29.999999999999996	29.999999999999996								
	72	71	3.82567283333105e-7	0.002210220765063257	0.02326561470379552	14502.000000000002	14502.000000000002	14502.000000000002	1.0234	0.0	1	-29.999999999999996	29.999999999999996								
	75	73	0.001780624838471582	0.013976412834350332	3.606660618641866	2263.0	2263.0	2263.0	0	0	1	-29.999999999999996	29.999999999999996								
	78	74	0.001131194917351143	0.020711878366172304	2.0251577812931707	1547.0	1547.0	1547.0	0	0	1	-29.999999999999996	29.999999999999996								
	75	76	0.001971255935635477	0.033229741928927664	1.8125001007963786	969.0	969.0	969.0	0	0	1	-29.999999999999996	29.999999999999996								
	75	78	0.0014147723947856938	0.02249687344633422	1.8684098908492397	1417.0	1417.0	1417.0	0	0	1	-29.999999999999996	29.999999999999996								
	76	77	1.1010540546227116e-6	0.003749609573607476	0.09672326501921905	8547.0	8547.0	8547.0	1.0977	0.0	1	-29.999999999999996	29.999999999999996								
	78	76	0.0011337712745105024	0.021881785266329133	1.7507718251819422	1382.0	1382.0	1382.0	0	0	1	-29.999999999999996	29.999999999999996								
	78	76	0.00028494180827804924	0.018996117744150224	3.514711234258484	1603.0	1603.0	1603.0	0	0	1	-29.999999999999996	29.999999999999996								
	82	76	0.0006208931626959793	0.013915891064957627	1.2634223139196086	2268.0	2268.0	2268.0	0	0	1	-29.999999999999996	29.999999999999996								
	82	76	0.0011082278147178895	0.024482683510763093	1.5176297768379443	1330.0	1330.0	1330.0	0	0	1	-29.999999999999996	29.999999999999996								
	82	76	0.0010800693158378226	0.02409154545819039	1.519421864705632	1330.0	1330.0	1330.0	0	0	1	-29.999999999999996	29.999999999999996								
	80	78	0.00020705238664218474	0.008489147761919526	1.4244490315920482	3908.0	3908.0	3908.0	0	0	1	-29.999999999999996	29.999999999999996								
	80	78	0.00020107802816272109	0.008244199071871483	1.358625390460753	3908.0	3908.0	3908.0	0	0	1	-29.999999999999996	29.999999999999996								
	80	79	4.893973867374244e-7	0.002499842012098488	0.01021844745491319	12819.999999999998	12819.999999999998	12819.999999999998	1.066	0.0	1	-29.999999999999996	29.999999999999996								
	81	99	0.0030832350506607357	0.0625522870400224	5.306456980166521	598.0	598.0	598.0	0	0	1	-29.999999999999996	29.999999999999996								
	81	180	5.571266413458731e-5	0.026672133957305475	0.011783714625934366	1202.0	1202.0	1202.0	0	0	1	-29.999999999999996	29.999999999999996								
	82	87	0.0004094901329364804	0.007360834817511922	0.7266136185253115	4342.0	4342.0	4342.0	0	0	1	-29.999999999999996	29.999999999999996								
	82	91	0.0006556755398615269	0.012577048922899924	0.8902204262745236	2529.0	2529.0	2529.0	0	0	1	-29.999999999999996	29.999999999999996								
	82	95	0.0006574806711182045	0.012611674621621176	0.8557686255048748	2529.0	2529.0	2529.0	0	0	1	-29.999999999999996	29.999999999999996								
	83	89	0.0007240270593089137	0.01389729708506976	1.2592681501848557	2316.0	2316.0	2316.0	0	0	1	-29.999999999999996	29.999999999999996								
	94	83	0.0007868204972453902	0.01515133818745938	1.0982601587805971	2131.0	2131.0	2131.0	0	0	1	-29.999999999999996	29.999999999999996								
	98	83	0.0007463396517314892	0.014251052993568276	1.0520965776173636	2266.0	2266.0	2266.0	0	0	1	-29.999999999999996	29.999999999999996								
	83	168	4.058895042724203e-6	0.007199222388616027	0.01028713985828596	4452.0	4452.0	4452.0	0	0	1	-29.999999999999996	29.999999999999996								
	83	170	5.848544852048553e-6	0.008641826857096083	0.042061910395236116	3710.0	3710.0	3710.0	0	0	1	-29.999999999999996	29.999999999999996								
	83	172	7.837336293106133e-6	0.010003819698400841	0.010217547554406776	3204.9999999999995	3204.9999999999995	3204.9999999999995	0	0	1	-29.999999999999996	29.999999999999996								
	84	85	4.060263840334888e-6	0.007200436197361943	0.11096967424060661	4452.0	4452.0	4452.0	1.05	0.0	1	-29.999999999999996	29.999999999999996								
	99	84	5.574078172416662e-5	0.026678863650216822	0.010205054549826077	1202.0	1202.0	1202.0	0	0	1	-29.999999999999996	29.999999999999996								
	156	85	0.006234580032217455	0.0676753578293469	1.1273791188627142	475.0	475.0	475.0	0	0	1	-29.999999999999996	29.999999999999996								
	88	86	0.0005958537921123095	0.010288408782039215	1.024396941052238	3089.0	3089.0	3089.0	0	0	1	-29.999999999999996	29.999999999999996								
	90	86	0.00011985503088362369	0.0023771247787902784	0.5135760483653256	5500.98	13449.0	13449.0	0	0	1	-29.999999999999996	29.999999999999996								
	180	86	0.0012170053910037933	0.023671751947173816	2.2887876057238588	1349.0	1349.0	1349.0	0	0	1	-29.999999999999996	29.999999999999996								
	87	88	1.2459263383933951e-5	0.01261327078309927	0.010293616189320558	2538.0	2538.0	2538.0	0	0	1	-29.999999999999996	29.999999999999996								
	89	90	5.768169072641798e-6	0.008582239708655395	0.034409498175329206	3736.0	3736.0	3736.0	0	0	1	-29.999999999999996	29.999999999999996								
	91	92	1.248588770018605e-5	0.012626740286042134	0.06920161179488729	2538.0	2538.0	2538.0	0	0	1	-29.999999999999996	29.999999999999996								
	92	93	0.0007529803675726136	0.014530485907900528	1.1278041940760788	2242.0	2242.0	2242.0	0	0	1	-29.999999999999996	29.999999999999996								
	93	94	1.2488196787064198e-5	0.012627907798703457	0.028047524198902864	2538.0	2538.0	2538.0	0	0	1	-29.999999999999996	29.999999999999996								
	95	96	1.2499018685343922e-5	0.012633378092339928	0.13947281957426455	2538.0	2538.0	2538.0	0	0	1	-29.999999999999996	29.999999999999996								
	96	97	0.0007453241105874486	0.014382740843897334	1.1928037880814206	2242.0	2242.0	2242.0	0	0	1	-29.999999999999996	29.999999999999996								
	97	98	1.2497459528191272e-5	0.01263259010980705	0.010201413086922705	2538.0	2538.0	2538.0	0	0	1	-29.999999999999996	29.999999999999996								
	101	100	0.024973416953754476	0.1704269488626378	0.28349932203901446	188.0	188.0	188.0	0	0	1	-29.999999999999996	29.999999999999996								
	100	117	0.014652888227220957	0.100005958531767	0.138849384059683	314.0	314.0	314.0	0	0	1	-29.999999999999996	29.999999999999996								
	101	105	0.013664000243763125	0.0916338277416809	0.13260652339887957	343.0	343.0	343.0	0	0	1	-29.999999999999996	29.999999999999996								
	101	106	0.01661658436113288	0.11337730010134338	0.010202377670826381	279.0	279.0	279.0	0	0	1	-29.999999999999996	29.999999999999996								
	101	113	0.011261167432308181	0.06756700354120222	0.06581583806395265	474.0	474.0	474.0	0	0	1	-29.999999999999996	29.999999999999996								
	101	113	0.010328322390667714	0.06433069276949896	0.010209128294541474	484.0	484.0	484.0	0	0	1	-29.999999999999996	29.999999999999996								
	101	113	0.011362380890906552	0.06829767662673203	0.013860162894301243	476.0	476.0	476.0	0	0	1	-29.999999999999996	29.999999999999996								
	101	117	0.04081742727078213	0.28657945073212115	0.4229464249275955	115.99999999999999	115.99999999999999	115.99999999999999	0	0	1	-29.999999999999996	29.999999999999996								
	102	103	7.525602552264775e-6	0.009802847782056192	0.010206569704122507	3271.0	3271.0	3271.0	1.05	0.0	1	-29.999999999999996	29.999999999999996								
	104	102	0.0008090013859612441	0.019835894338548012	1.3322535401648925	1654.0	1654.0	1654.0	0	0	1	-29.999999999999996	29.999999999999996								
	102	108	0.000874346589313458	0.020974267717086614	1.7282478127250276	1535.0	1535.0	1535.0	0	0	1	-29.999999999999996	29.999999999999996								
	102	108	0.000860227742340385	0.020635577697762416	1.425830340170682	1535.0	1535.0	1535.0	0	0	1	-29.999999999999996	29.999999999999996								
	107	104	0.0008411862349309379	0.02011752581467471	0.010201876907464736	1614.0	1614.0	1614.0	0	0	1	-29.999999999999996	29.999999999999996								
	134	104	0.0009506052745893273	0.037247363886158805	1.484412935737718	880.0000000000001	880.0000000000001	880.0000000000001	0	0	1	-29.999999999999996	29.999999999999996								
	104	135	0.000711421657105599	0.015809369992480456	0.9575772954322307	2002.0	2002.0	2002.0	0	0	1	-29.999999999999996	29.999999999999996								
	105	117	0.029320766346758398	0.19617488518332796	0.14691074649426977	155.0	155.0	155.0	0	0	1	-29.999999999999996	29.999999999999996								
	106	117	0.02372479559743303	0.17096711933625666	0.18956475989214064	198.0	198.0	198.0	0	0	1	-29.999999999999996	29.999999999999996								
	107	108	0.0015181914166222277	0.01458654496076422	0.010251673818719258	2169.0	2169.0	2169.0	0	0	1	-29.999999999999996	29.999999999999996								
	110	107	0.0005334584569858744	0.013054634202890759	0.01022202999915037	2469.0	2469.0	2469.0	0	0	1	-29.999999999999996	29.999999999999996								
	109	108	2.3736058066032117e-5	0.01740947368947889	0.08981178521200531	1842.0000000000002	1842.0000000000002	1842.0000000000002	1.119	0.0	1	-29.999999999999996	29.999999999999996								
	109	108	1.1098246122877768e-5	0.011904433545832826	0.010202744506236068	2694.0	2694.0	2694.0	1.119	0.0	1	-29.999999999999996	29.999999999999996								
	133	108	2.2844317817038085e-5	0.015202268159419502	0.03333505177734601	2408.0	2408.0	2408.0	0	0	1	-29.999999999999996	29.999999999999996								
	135	108	1.9073534600521707e-5	0.009517665259674322	0.04276662741902199	3211.9999999999995	3211.9999999999995	3211.9999999999995	0	0	1	-29.999999999999996	29.999999999999996								
	108	174	6.85793600030929e-6	0.00935789881901239	0.010202019282004711	3428.0	3428.0	3428.0	0	0	1	-29.999999999999996	29.999999999999996								
	108	176	6.9810570710984e-6	0.009441526649821425	0.010200570427068737	3395.0000000000005	3395.0000000000005	3395.0000000000005	0	0	1	-29.999999999999996	29.999999999999996								
	108	178	6.844463681013866e-6	0.009348702574615161	0.010233095515722075	3428.0	3428.0	3428.0	0	0	1	-29.999999999999996	29.999999999999996								
	111	120	7.831911430402618e-6	0.010000356869492924	0.03997518485172362	3204.9999999999995	3204.9999999999995	3204.9999999999995	0	0	1	-29.999999999999996	29.999999999999996								
	173	111	7.833152569412314e-6	0.01000114922611061	0.01021501845663435	3204.9999999999995	3204.9999999999995	3204.9999999999995	0	0	1	-29.999999999999996	29.999999999999996								
	112	113	4.0707753802365405e-5	0.022799200885399634	0.036900213109621216	1406.0	1406.0	1406.0	0.9174	0.0	1	-29.999999999999996	29.999999999999996								
	113	114	8.858643010567968e-5	0.015414027253186345	0.010207679250270808	1842.0000000000002	1842.0000000000002	1842.0000000000002	1.119	0.0	1	-29.999999999999996	29.999999999999996								
	114	124	2.858873766034985e-5	0.0142656441226948	0.010202392633558571	3211.9999999999995	3211.9999999999995	3211.9999999999995	0	0	1	-29.999999999999996	29.999999999999996								
	114	126	2.6209309816914022e-5	0.013078350789992126	0.01020941390654505	3211.9999999999995	3211.9999999999995	3211.9999999999995	0	0	1	-29.999999999999996	29.999999999999996								
	169	114	4.061384163211618e-6	0.007201429513902251	0.08270788558122025	4452.0	4452.0	4452.0	0	0	1	-29.999999999999996	29.999999999999996								
	171	114	4.059608205516072e-6	0.0071998548255660134	0.06469240569238141	4452.0	4452.0	4452.0	0	0	1	-29.999999999999996	29.999999999999996								
	125	115	9.835371891263737e-6	0.006550341902036117	0.01697231254472138	4813.0	4813.0	4813.0	0	0	1	-29.999999999999996	29.999999999999996								
	127	115	1.0246094082088674e-5	0.0068238804260844065	0.01021523382738717	4813.0	4813.0	4813.0	0	0	1	-29.999999999999996	29.999999999999996								
	115	128	7.930009120667036e-6	0.008881278556315791	0.01020148322418161	2862.0	2862.0	2862.0	0	0	1	-29.999999999999996	29.999999999999996								
	115	130	7.328627726828873e-6	0.0052766029314648905	0.010202236190355856	4452.0	4452.0	4452.0	0	0	1	-29.999999999999996	29.999999999999996								
	116	117	2.575823313151282e-5	0.01813590969304611	0.010206203988649649	1766.0	1766.0	1766.0	0.9091	0.0	1	-29.999999999999996	29.999999999999996								
	117	119	0.00020402136026353532	0.012751334305414726	0.010203401358821166	2564.0	2564.0	2564.0	1.119	0.0	1	-29.999999999999996	29.999999999999996								
	118	119	1.5719032732605324e-6	0.004480171409488249	0.010203690748417359	7154.000000000001	7154.000000000001	7154.000000000001	0.9452	0.0	1	-29.999999999999996	29.999999999999996								
	123	119	7.833322114545648e-6	0.01000125746069191	0.07189862380033762	3204.9999999999995	3204.9999999999995	3204.9999999999995	0	0	1	-29.999999999999996	29.999999999999996								
	129	119	1.1568068831530858e-5	0.012152547265531947	0.010202179585044241	2862.0	2862.0	2862.0	0	0	1	-29.999999999999996	29.999999999999996								
	131	119	1.0039337633782826e-5	0.003614160980281843	0.04006577355819979	5209.14	8903.0	8903.0	0	0	1	-29.999999999999996	29.999999999999996								
	119	132	9.205097249374688e-6	0.006949821323593162	0.010210489936997596	4245.0	4245.0	4245.0	0	0	1	-29.999999999999996	29.999999999999996								
	119	134	6.129068470753155e-5	0.027975370051466827	0.010218022781360553	2919.0	2919.0	2919.0	0	0	1	-29.999999999999996	29.999999999999996								
	120	121	0.0007754080549929258	0.019915743378651984	1.778400886246385	1641.0	1641.0	1641.0	0	0	1	-29.999999999999996	29.999999999999996								
	121	122	7.82937084296524e-6	0.00999873473507391	0.010201911974380645	3204.9999999999995	3204.9999999999995	3204.9999999999995	0	0	1	-29.999999999999996	29.999999999999996								
	122	123	0.0008456494814796999	0.021852819689423503	2.0902573147466548	1512.0	1512.0	1512.0	0	0	1	-29.999999999999996	29.999999999999996								
	124	125	0.0013843174471537384	0.023118101138842533	1.4976936348507626	1369.0	1369.0	1369.0	0	0	1	-29.999999999999996	29.999999999999996								
	126	127	0.001387158920914098	0.02316555375244427	1.5307615345719967	1369.0	1369.0	1369.0	0	0	1	-29.999999999999996	29.999999999999996								
	128	129	0.001572286764712519	0.03480470980052693	2.280466162676826	940.0	940.0	940.0	0	0	1	-29.999999999999996	29.999999999999996								
	130	131	0.0009371052624043268	0.020734686608823178	1.4183063616655665	1524.0	1524.0	1524.0	0	0	1	-29.999999999999996	29.999999999999996								
	132	133	0.0015767084610015564	0.05464964843732372	2.393481500387814	561.0	561.0	561.0	0	0	1	-29.999999999999996	29.999999999999996								
	136	152	0.0004187654410792811	0.009023398166645612	0.6690293439747855	3538.0000000000005	3538.0000000000005	3538.0000000000005	0	0	1	-29.999999999999996	29.999999999999996								
	137	143	0.0019398063836690953	0.026340528499604356	0.1469754588181847	911.65	1239.0	1239.0	0	0	1	-29.999999999999996	29.999999999999996								
	137	150	0.008184229974958405	0.06812765920829243	0.20439797145941954	453.0	453.0	453.0	0	0	1	-29.999999999999996	29.999999999999996								
	138	139	1.7835822494762258e-5	0.015091347353958775	0.010219207389633613	2120.0	2120.0	2120.0	0.996	0.0	1	-29.999999999999996	29.999999999999996								
	139	142	0.001955339937569599	0.028154868433934003	4.644938490187989	1151.0	1151.0	1151.0	0	0	1	-29.999999999999996	29.999999999999996								
	147	139	0.0005604890688635675	0.014162357566575393	1.089899265431335	2264.0	2264.0	2264.0	0	0	1	-29.999999999999996	29.999999999999996								
	140	141	1.0437316320941945e-6	0.0036507000597141557	0.02686678694854484	8781.0	8781.0	8781.0	0.9787	0.0	1	-29.999999999999996	29.999999999999996								
	141	143	0.0011070282175840863	0.012781143944998732	0.050199343437590305	859.21	2515.0	2515.0	0	0	1	-29.999999999999996	29.999999999999996								
	142	145	0.00028012778757270364	0.007533436548621782	0.4943344110154921	4254.0	4254.0	4254.0	0	0	1	-29.999999999999996	29.999999999999996								
	142	145	0.00034890157796205824	0.0074764623701844895	0.6032555539827915	4269.0	4269.0	4269.0	0	0	1	-29.999999999999996	29.999999999999996								
	142	147	0.0018868208434942373	0.030784970937654168	4.166876283300152	1032.0	1032.0	1032.0	0	0	1	-29.999999999999996	29.999999999999996								
	142	151	0.0005958788659062021	0.012712082396339251	0.967628096510019	2502.0	2502.0	2502.0	0	0	1	-29.999999999999996	29.999999999999996								
	142	153	0.00044047395910271775	0.011262118182532758	0.9412887569502051	2847.0	2847.0	2847.0	0	0	1	-29.999999999999996	29.999999999999996								
	142	153	0.0004425699252139946	0.011315708223899771	0.8263202220247496	2847.0	2847.0	2847.0	0	0	1	-29.999999999999996	29.999999999999996								
	146	143	0.001349283148111262	0.0527882368076728	0.19071757814573556	594.0	594.0	594.0	0	0	1	-29.999999999999996	29.999999999999996								
	154	143	0.0032930136955112055	0.040648137011706	0.22546475084563733	754.67	809.0	809.0	0	0	1	-29.999999999999996	29.999999999999996								
	144	145	2.0863445329722714e-6	0.00516148567581377	0.010252747448852913	6211.0	6211.0	6211.0	0.9843	0.0	1	-29.999999999999996	29.999999999999996								
	145	146	1.9586621535425083e-6	0.005001053267612025	0.06655814983327914	6409.999999999999	6409.999999999999	6409.999999999999	0	0	1	-29.999999999999996	29.999999999999996								
	145	151	0.0002101792691700662	0.004573901235010039	0.33518608792901433	5370.29	7006.0	7006.0	0	0	1	-29.999999999999996	29.999999999999996								
	147	148	7.524910958283564e-6	0.009802397336909543	0.01020232737710132	3271.0	3271.0	3271.0	1.05	0.0	1	-29.999999999999996	29.999999999999996								
	149	150	8.245479350565182e-6	0.01026099702758382	0.1086794251886132	3124.0	3124.0	3124.0	0.9871	0.0	1	-29.999999999999996	29.999999999999996								
	150	154	0.0028519729770296715	0.036515260318419084	0.010239247945777841	876.0	876.0	876.0	0	0	1	-29.999999999999996	29.999999999999996								
	150	154	0.0014620744763580806	0.036011527465656466	0.09504699350378774	873.01	943.0	943.0	0	0	1	-29.999999999999996	29.999999999999996								
	151	152	0.00040172936342435856	0.009340207662653975	0.7453205921584332	3443.0	3443.0	3443.0	0	0	1	-29.999999999999996	29.999999999999996								
	153	154	1.033939133129822e-5	0.011490238902232476	0.08148929362175177	2790.0	2790.0	2790.0	1.0631	0.0	1	-29.999999999999996	29.999999999999996								
	153	154	1.033954515875941e-5	0.01149032437661955	0.03190608565677128	2790.0	2790.0	2790.0	1.0631	0.0	1	-29.999999999999996	29.999999999999996								
	153	154	1.0342141672428458e-5	0.011491767036178551	0.061013170498457	2790.0	2790.0	2790.0	1.0631	0.0	1	-29.999999999999996	29.999999999999996								
	175	153	6.838745415936525e-6	0.009344796534381191	0.010359007926199338	3428.0	3428.0	3428.0	0	0	1	-29.999999999999996	29.999999999999996								
	177	153	6.846648576203341e-6	0.009350194604922268	0.010204726088760583	3428.0	3428.0	3428.0	0	0	1	-29.999999999999996	29.999999999999996								
	179	153	5.523408117341627e-6	0.008398180813925004	0.010201899885768346	3815.9999999999995	3815.9999999999995	3815.9999999999995	0	0	1	-29.999999999999996	29.999999999999996								
	156	155	0.0023991714023522057	0.03318853713747549	0.5774636343823318	963.0000000000001	963.0000000000001	963.0000000000001	0	0	1	-29.999999999999996	29.999999999999996								
	155	158	0.005439613199597755	0.06297398064461805	1.0603954298154126	531.0	531.0	531.0	0	0	1	-29.999999999999996	29.999999999999996								
	155	158	0.004619062368816471	0.05062115155865978	0.9619824298929581	595.0	595.0	595.0	0	0	1	-29.999999999999996	29.999999999999996								
	155	160	0.0016593833653714288	0.021962426739022167	0.4603809166203938	1421.0	1421.0	1421.0	0	0	1	-29.999999999999996	29.999999999999996								
	155	160	0.0020910272144211094	0.023698308287031695	0.5268444611696018	1342.0	1342.0	1342.0	0	0	1	-29.999999999999996	29.999999999999996								
	155	165	0.0011992187558981695	0.017188802080586985	0.21599331950095932	1859.0	1859.0	1859.0	0	0	1	-29.999999999999996	29.999999999999996								
	155	167	0.000801980483050881	0.010626241383187645	0.2035835137615183	2253.37	3015.0	3015.0	0	0	1	-29.999999999999996	29.999999999999996								
	156	157	0.0002994861039577747	0.018068992987599883	0.010205242368218922	1771.0	1771.0	1771.0	0	0	1	-29.999999999999996	29.999999999999996								
	156	167	0.0016184871071385238	0.022861130189363407	0.43224688723617277	1415.0	1415.0	1415.0	0	0	1	-29.999999999999996	29.999999999999996								
	157	161	0.011081296240416628	0.09901342699066144	0.33581509294828427	331.0	331.0	331.0	0	0	1	-29.999999999999996	29.999999999999996								
	158	159	0.0001984978568887051	0.005756437836829159	0.010208166956284011	5523.0	5523.0	5523.0	0.9855	0.0	1	-29.999999999999996	29.999999999999996								
	158	164	0.009854360510412935	0.0901263331165357	1.3962417306216115	363.0	363.0	363.0	0	0	1	-29.999999999999996	29.999999999999996								
	158	165	0.0033594854481749604	0.038732890391675316	0.6748280759404784	815.0	815.0	815.0	0	0	1	-29.999999999999996	29.999999999999996								
	158	166	0.0034500464690287286	0.03795051060178729	0.6146855417710636	853.9999999999999	853.9999999999999	853.9999999999999	0	0	1	-29.999999999999996	29.999999999999996								
	158	166	0.0034378623169543173	0.03761425775480837	0.5955482896949478	858.0	858.0	858.0	0	0	1	-29.999999999999996	29.999999999999996								
	160	166	0.0036368924652505877	0.03254061656201639	0.5344615257012625	936.9999999999999	936.9999999999999	936.9999999999999	0	0	1	-29.999999999999996	29.999999999999996								
	160	166	0.0032046464589264778	0.03495067501062075	0.3685993472030272	915.0	915.0	915.0	0	0	1	-29.999999999999996	29.999999999999996								
	161	162	0.000509468380586303	0.014367008131045236	0.04157384994202352	2272.0	2272.0	2272.0	1.0588	0.0	1	-29.999999999999996	29.999999999999996								
	164	163	2.9859458151968664e-5	0.01952640088392705	0.010205434419476142	1644.0000000000002	1644.0000000000002	1644.0000000000002	0	0	1	-29.999999999999996	29.999999999999996								
	168	169	0.001024561093142205	0.023256541720836972	1.7510441057840098	1370.0	1370.0	1370.0	0	0	1	-29.999999999999996	29.999999999999996								
	170	171	0.0010700261608462835	0.02470060341273664	1.5953359927884316	1297.0	1297.0	1297.0	0	0	1	-29.999999999999996	29.999999999999996								
	172	173	0.0010029474318041754	0.03145164973357618	2.6771822239142833	992.0	992.0	992.0	0	0	1	-29.999999999999996	29.999999999999996								
	174	175	0.0012119866862363186	0.026200589433488273	1.9334554461435072	1204.0	1204.0	1204.0	0	0	1	-29.999999999999996	29.999999999999996								
	176	177	0.0012415451144022547	0.02686986169202226	2.006256650080849	1203.0	1203.0	1203.0	0	0	1	-29.999999999999996	29.999999999999996								
	178	179	0.0011089495921491246	0.024921661071986692	1.9212729656126222	1273.0	1273.0	1273.0	0	0	1	-29.999999999999996	29.999999999999996								
];

%%-----  OPF Data  -----%%
%% cost data
%    1    startup    shutdown    n    x1    y1    ...    xn    yn
%    2    startup    shutdown    n    c(n-1)    ...    c0
mpc.gencost = [
	2	0.0	0.0	2	27.125018	0.0
	2	0.0	0.0	2	25.767823	0.0
	2	0.0	0.0	2	33.458506	0.0
	2	0.0	0.0	2	6.580729	0.0
	2	0.0	0.0	2	31.784817	0.0
	2	0.0	0.0	2	27.844304	0.0
	2	0.0	0.0	2	41.89924200000001	0.0
	2	0.0	0.0	2	26.88751	0.0
	2	0.0	0.0	2	26.647901	0.0
	2	0.0	0.0	2	23.718395	0.0
	2	0.0	0.0	2	49.354886	0.0
	2	0.0	0.0	2	35.232014	0.0
	2	0.0	0.0	2	21.891639	0.0
	2	0.0	0.0	2	25.383461000000004	0.0
	2	0.0	0.0	2	8.035714	0.0
	2	0.0	0.0	2	33.91213	0.0
	2	0.0	0.0	2	25.457586000000003	0.0
	2	0.0	0.0	2	7.168126	0.0
	2	0.0	0.0	2	8.487093	0.0
	2	0.0	0.0	2	19.203903	0.0
	2	0.0	0.0	2	30.820178	0.0
	2	0.0	0.0	2	124.67254	0.0
	2	0.0	0.0	2	28.267849	0.0
	2	0.0	0.0	2	31.546462	0.0
	2	0.0	0.0	2	22.349251	0.0
	2	0.0	0.0	2	7.230771	0.0
	2	0.0	0.0	2	14.174214	0.0
	2	0.0	0.0	2	8.614738	0.0
	2	0.0	0.0	2	49.876052	0.0
];

